40
IM6b
C 	  -2.005416850745	   0.766596659166	  -0.689619459394
C 	  -1.223910795389	   1.890763588064	  -0.050439090075
C 	   0.396797726360	   1.919066599593	   0.170072935994
C 	  -1.900284020435	  -0.705434620859	  -0.246073661652
C 	   1.029865786738	   0.684054419193	   0.030562138017
C 	  -0.472929749239	  -1.257321134469	  -0.382421008261
C 	   0.603319036229	  -0.648945704748	   0.557170915729
C 	   1.935675013700	  -1.453723016484	   0.572726586679
C 	   2.666756044951	  -0.944250563109	  -0.675724609126
C 	   2.337789862531	   0.551769748779	  -0.679590883731
C 	   1.804120693439	  -2.968287749819	   0.663939122951
C 	   1.083325112881	   3.182133725829	  -0.305278281010
C 	  -0.696849950769	   2.048346101441	   1.286531168646
C 	  -2.778436700428	  -1.504765533676	  -1.224973972697
C 	  -2.465366715884	  -0.927522211271	   1.164612469863
H 	  -3.055048784013	   1.072701106197	  -0.571531088925
H 	  -1.424193711233	   2.832377580662	  -0.559893507031
H 	  -0.148568708270	  -1.177992609534	  -1.429174620291
H 	  -1.805389412423	   0.820954250420	  -1.767328735978
H 	  -0.510489155178	  -2.326210911397	  -0.149530031601
H 	   0.173611541304	  -0.575641135402	   1.560911305815
H 	   2.494509047594	  -1.105707399568	   1.452882865772
H 	   3.740666420063	  -1.136203459428	  -0.644375655865
H 	   2.270565860265	  -1.428763386656	  -1.574990157204
H 	   3.069734451356	   1.121784357963	  -0.081918810477
H 	   2.321543934204	   1.043292586722	  -1.659416117534
H 	   1.391471276949	  -3.397854067949	  -0.253135886152
H 	   2.789230227043	  -3.414899881796	   0.819564854769
H 	   1.169656005348	  -3.267594784381	   1.504042548151
H 	   1.267874112677	   3.159826964637	  -1.382951195156
H 	   2.039860182930	   3.322107256972	   0.206609359227
H 	   0.464671678721	   4.056277528161	  -0.092043914413
H 	  -0.738459677887	   1.233113356361	   1.995916967142
H 	  -0.686788246406	   3.041642547705	   1.724685733963
H 	  -3.810855621028	  -1.141956526352	  -1.203805085097
H 	  -2.410904775054	  -1.421888644157	  -2.253021597885
H 	  -2.791880097860	  -2.564358892367	  -0.953222102976
H 	  -1.939288091284	  -0.384743266164	   1.952349710214
H 	  -3.513288776286	  -0.614659492248	   1.203142881603
H 	  -2.429378078572	  -1.991418349244	   1.420343359577

